ieee33-dg-voltage-regulation/results/S1_Base_Voltages.csv
Bus, BasekV, Node1, Magnitude1, Angle1, pu1, Node2, Magnitude2, Angle2, pu2, Node3, Magnitude3, Angle3, pu3
"SOURCEBUS", 110, 1,    66576.6,   -0.1,    1.0483, 2,    66576.6, -120.1,    1.0483, 3,    66576.6,  119.9,    1.0483
"1", 12.66, 1,    7336.32,   -3.2,    1.0037, 2,    7336.32, -123.2,    1.0037, 3,    7336.32,  116.8,    1.0037
"2", 12.66, 1,    7315.23,   -3.2,    1.0008, 2,    7315.23, -123.2,    1.0008, 3,    7315.23,  116.8,    1.0008
"3", 12.66, 1,    7215.38,   -3.2,   0.98716, 2,    7215.38, -123.2,   0.98716, 3,    7215.38,  116.8,   0.98716
"4", 12.66, 1,    7162.94,   -3.1,   0.97998, 2,    7162.94, -123.1,   0.97998, 3,    7162.94,  116.9,   0.97998
"5", 12.66, 1,     7111.2,   -3.0,    0.9729, 2,     7111.2, -123.0,    0.9729, 3,     7111.2,  117.0,    0.9729
"6", 12.66, 1,    6982.71,   -3.1,   0.95532, 2,    6982.71, -123.1,   0.95532, 3,    6982.71,  116.9,   0.95532
"7", 12.66, 1,    6958.25,   -3.3,   0.95198, 2,    6958.25, -123.3,   0.95198, 3,    6958.25,  116.7,   0.95198
"8", 12.66, 1,    6924.46,   -3.3,   0.94736, 2,    6924.46, -123.3,   0.94736, 3,    6924.46,  116.7,   0.94736
"9", 12.66, 1,    6881.22,   -3.4,   0.94144, 2,    6881.22, -123.4,   0.94144, 3,    6881.22,  116.6,   0.94144
"10", 12.66, 1,    6841.21,   -3.4,   0.93597, 2,    6841.21, -123.4,   0.93597, 3,    6841.21,  116.6,   0.93597
"11", 12.66, 1,     6835.3,   -3.4,   0.93516, 2,     6835.3, -123.4,   0.93516, 3,     6835.3,  116.6,   0.93516
"12", 12.66, 1,    6825.03,   -3.4,   0.93375, 2,    6825.03, -123.4,   0.93375, 3,    6825.03,  116.6,   0.93375
"13", 12.66, 1,    6783.26,   -3.5,   0.92804, 2,    6783.26, -123.5,   0.92804, 3,    6783.26,  116.5,   0.92804
"14", 12.66, 1,     6767.8,   -3.6,   0.92592, 2,     6767.8, -123.6,   0.92592, 3,     6767.8,  116.4,   0.92592
"15", 12.66, 1,    6758.19,   -3.6,   0.92461, 2,    6758.19, -123.6,   0.92461, 3,    6758.19,  116.4,   0.92461
"16", 12.66, 1,     6748.9,   -3.6,   0.92334, 2,     6748.9, -123.6,   0.92334, 3,     6748.9,  116.4,   0.92334
"17", 12.66, 1,    6735.16,   -3.7,   0.92146, 2,    6735.16, -123.7,   0.92146, 3,    6735.16,  116.3,   0.92146
"18", 12.66, 1,    6731.04,   -3.7,   0.92089, 2,    6731.04, -123.7,   0.92089, 3,    6731.04,  116.3,   0.92089
"19", 12.66, 1,    7311.39,   -3.2,    1.0003, 2,    7311.39, -123.2,    1.0003, 3,    7311.39,  116.8,    1.0003
"20", 12.66, 1,    7285.37,   -3.3,   0.99673, 2,    7285.37, -123.3,   0.99673, 3,    7285.37,  116.7,   0.99673
"21", 12.66, 1,    7280.24,   -3.3,   0.99603, 2,    7280.24, -123.3,   0.99603, 3,    7280.24,  116.7,   0.99603
"22", 12.66, 1,    7275.61,   -3.4,    0.9954, 2,    7275.61, -123.4,    0.9954, 3,    7275.61,  116.6,    0.9954
"23", 12.66, 1,    7189.29,   -3.2,   0.98359, 2,    7189.29, -123.2,   0.98359, 3,    7189.29,  116.8,   0.98359
"24", 12.66, 1,    7140.76,   -3.3,   0.97695, 2,    7140.76, -123.3,   0.97695, 3,    7140.76,  116.7,   0.97695
"25", 12.66, 1,    7116.56,   -3.3,   0.97364, 2,    7116.56, -123.3,   0.97364, 3,    7116.56,  116.7,   0.97364
"26", 12.66, 1,    6969.32,   -3.1,   0.95349, 2,    6969.32, -123.1,   0.95349, 3,    6969.32,  116.9,   0.95349
"27", 12.66, 1,    6951.57,   -3.0,   0.95106, 2,    6951.57, -123.0,   0.95106, 3,    6951.57,  117.0,   0.95106
"28", 12.66, 1,    6872.59,   -3.0,   0.94026, 2,    6872.59, -123.0,   0.94026, 3,    6872.59,  117.0,   0.94026
"29", 12.66, 1,    6815.92,   -2.9,   0.93251, 2,    6815.92, -122.9,   0.93251, 3,    6815.92,  117.1,   0.93251
"30", 12.66, 1,    6791.44,   -2.8,   0.92916, 2,    6791.44, -122.8,   0.92916, 3,    6791.44,  117.2,   0.92916
"31", 12.66, 1,    6762.96,   -2.9,   0.92526, 2,    6762.96, -122.9,   0.92526, 3,    6762.96,  117.1,   0.92526
"32", 12.66, 1,     6756.7,   -2.9,    0.9244, 2,     6756.7, -122.9,    0.9244, 3,     6756.7,  117.1,    0.9244
"33", 12.66, 1,    6754.77,   -2.9,   0.92414, 2,    6754.77, -122.9,   0.92414, 3,    6754.77,  117.1,   0.92414
